40
Lattice="12.715946648602602 0.23737297738384555 -0.6243305485682858 -0.24850870809129078 12.777876599414387 0.06941692704625989 0.6341946809079752 -0.032067997499127913 12.771651281643488" Properties=species:S:1:pos:R:3:forces:R:3:energies:R:1 energy=-12701.938328743257 free_energy=-12701.938328743257 pbc="T T T"
Cs      10.32453610      10.86384438       2.38005052      -0.00023615       0.00016172       0.00026728    -316.88414181
Cs       4.13327036       5.08880228       3.39426859       0.00036072       0.00018383      -0.00008054    -316.88386889
Cs       4.44856343       4.86198569       9.99063842      -0.00059788      -0.00010264      -0.00017739    -316.88426654
Cs      10.68136258      10.63724759       8.97663926      -0.00002269      -0.00015077      -0.00060520    -316.88384719
Cs       4.32624843      11.46209021       9.81544745       0.00008511       0.00002438      -0.00004085    -316.88384030
Cs      10.76367495       4.45962656       8.73220804       0.00009652       0.00006160      -0.00009382    -316.88419369
Cs      10.48693109       4.26262131       2.55521624       0.00024676       0.00018689       0.00002193    -316.88386046
Cs       4.00427516      11.26488958       3.63955056       0.00030138       0.00051477      -0.00001284    -316.88434225
Pb       1.15652045       1.37016245       6.43572204      -0.00008022       0.00004532      -0.00024225    -317.74330712
Pb       7.40423836       7.83357994       6.20135688      -0.00043312      -0.00017806       0.00030547    -317.74357784
Pb       7.51677407       1.45587564       6.18223293      -0.00057198      -0.00030463      -0.00031372    -317.74327949
Pb       1.04216795       7.77046982       6.48103324       0.00023725      -0.00022032       0.00030038    -317.74322843
Pb       0.84923628       1.39732094       0.05987209       0.00036469       0.00009116       0.00015235    -317.74311560
Pb       7.07599921       7.86000159      -0.17052315      -0.00022187      -0.00013750       0.00026368    -317.74335534
Pb       7.21170141       1.45869423      -0.21713898      -0.00052710       0.00020205       0.00033840    -317.74333450
Pb       0.71541155       7.77413183       0.08427733      -0.00026199      -0.00005519      -0.00033460    -317.74324853
I        4.29614402       1.85445048       5.73559384      -0.00012402      -0.00028019       0.00004143    -317.69822972
I       10.55022344       8.50135325       5.59651966       0.00061749      -0.00004929      -0.00004088    -317.69835686
I       10.47869305      13.87117557       6.63596130      -0.00021751      -0.00018975       0.00003941    -317.69844322
I        4.25703798       7.22731991       6.77347585      -0.00052200      -0.00027359       0.00002675    -317.69817759
I        6.84510567      11.05511304       6.74785122       0.00046871       0.00031526      -0.00025724    -317.70971306
I       13.27751419       4.77034348       5.36249648       0.00028370      -0.00004810      -0.00024684    -317.71010622
I        7.93152539       4.69103284       5.59633419       0.00037440      -0.00003171      -0.00023300    -317.70660449
I        1.50574822      10.93622281       7.03529622      -0.00024848       0.00000015       0.00024898    -317.70691013
I       10.10986081      14.90455940      -0.75590588       0.00028317      -0.00012110       0.00004744    -317.69853985
I        3.85525509       8.26008664      -0.61396095      -0.00007689      -0.00043877      -0.00002788    -317.69842933
I        4.69930517       0.82200161      13.12561326       0.00002425      -0.00014924      -0.00006572    -317.69819834
I       10.92040004       7.46531031      12.98670108      -0.00011458      -0.00006997      -0.00003686    -317.69851116
I        7.28856360       4.64983481      13.09887576      -0.00004957      -0.00037106      -0.00006573    -317.70991343
I        0.75665546      10.90560854      12.40657487      -0.00000998       0.00018056       0.00007135    -317.71031312
I        7.49162014      11.09531596      -0.75516895      -0.00004105       0.00057067       0.00007962    -317.70677536
I       14.02923140       4.80056239      -0.01040146      -0.00002259       0.00000066       0.00048038    -317.70695341
I       14.53754821       2.11323437       9.01824442       0.00025118       0.00023491       0.00008625    -317.70974012
I        8.07182837       7.34355029       9.34106926       0.00019198       0.00019191      -0.00007687    -317.70984647
I        0.26672866      13.58712813       3.37280805      -0.00016383      -0.00018354      -0.00027286    -317.70638038
I        6.72748045       8.40863123       3.00834481      -0.00001267       0.00006248      -0.00001223    -317.70654216
I        7.88051635       0.96999963       2.91968127       0.00022229       0.00019767      -0.00009279    -317.70985053
I       14.09412879       8.51754617       2.66675104       0.00016948       0.00016148       0.00076255    -317.70986803
I        6.92062365      14.78190221       9.42816996      -0.00006074      -0.00019511       0.00022831    -317.70674069
I        0.70776250       7.18126231       9.72375250       0.00003784       0.00016309      -0.00043188    -317.70637709
