320
Lattice="25.538027      0.556076      0.211255   -0.955573      25.326923      -0.147644  0.207483      -0.152052      25.452899 "
 Cs         2.5019258761        9.2431002266        3.0171566036
 Cs         1.8763127101        9.2969633269       16.0044127089
 Cs         2.3064728979       22.0850975317        3.3378597281
 Cs         1.5316623662       22.2061610349       16.0607458720
 Cs        15.2460804121       10.0360826932        3.2187370471
 Cs        15.0184906471        9.6680566328       15.7208026660
 Cs        15.1201092130       22.4851201715        3.5051047011
 Cs        14.9903138752       22.3169074370       15.4318891023
 Cs         8.9783064292        3.6904134760        2.6463765878
 Cs         9.7092884813        2.8975837202       15.3237403408
 Cs         9.1523206448       15.7723198430        3.0431654058
 Cs         9.1790626225       16.1453801826       16.0455073041
 Cs        22.0237237253        3.7357660594        3.1483484942
 Cs        22.7285354515        3.6218197695       16.8109531309
 Cs        21.4373655075       16.2933079887        3.8170398502
 Cs        21.6461596522       15.6758845004       16.3102105342
 Cs         9.6700984393        2.9688477583        9.8961293662
 Cs        10.0110816658        2.7501732023       22.8096881774
 Cs         8.4215401844       15.9331949418        8.9074681058
 Cs         9.0464967146       16.5287449995       22.6249219340
 Cs        22.6324695282        4.0470655676        9.5756877459
 Cs        21.7644048851        3.4847390267       22.1571389302
 Cs        22.8426234899       16.6798896810        8.9665204586
 Cs        22.4458304782       15.8407497429       22.0339483013
 Cs         3.2633063088        9.6067771018        9.5821101874
 Cs         2.0258654280        9.0882547628       22.2612047596
 Cs         3.0418913092       22.2626647042        9.2735312016
 Cs         2.3817164023       22.6644884704       21.6328443025
 Cs        15.7297373483       10.2847061163        9.9354218347
 Cs        15.8433669009        9.5393598084       22.5015032619
 Cs        15.6496939752       23.2501701304        9.1733095900
 Cs        15.2794830142       21.7312103279       22.3387123172
 Cs         3.3012545737        3.2145072751        8.9498195021
 Cs         3.3109931341        3.4615931064       21.4657981427
 Cs         2.9202975739       15.1306287038       10.2268861614
 Cs         3.1268453655       16.6165816799       23.1514987211
 Cs        16.7522855109        3.3356409089        9.6830918056
 Cs        15.4715612509        2.9201937107       22.7052959547
 Cs        15.9770042027       15.6114450877        9.3460795941
 Cs        15.5779685193       15.9899967346       21.8120304030
 Cs         8.9007229122        9.3183309626        9.4282034793
 Cs         9.8102898746        9.8570901822       22.2426190226
 Cs         8.0929203082       22.0461260624        9.2099583561
 Cs         8.7407744554       22.2885890571       23.2134802248
 Cs        21.9950184359       10.3323172915       10.1475623896
 Cs        21.8942272938       10.0517785577       22.6851548846
 Cs        21.7812346975       22.6095885443       10.2316564153
 Cs        22.6441916314       22.6110971152       22.4981848347
 Cs         8.3546003394        9.4637934046        2.6851721940
 Cs         8.9025150300       10.0216121851       15.8250972395
 Cs         9.1492199620       22.3474530105        3.0629397871
 Cs         8.3257682094       22.3852661471       16.2925724110
 Cs        21.6494465691       10.4769027417        3.2675434165
 Cs        21.4993484205        9.5406548650       16.2763378582
 Cs        22.2749453092       23.6305481346        3.3389284365
 Cs        21.5977433864       21.8852004408       15.8082221856
 Cs         3.0758382029        3.6188784562        3.0645370243
 Cs         3.4119649761        3.3266285320       15.5961725146
 Cs         2.9225855969       15.3570924933        3.2671904785
 Cs         3.8222205472       15.7387930687       16.5145338284
 Cs        15.6798957224        2.9329709426        3.1913402444
 Cs        15.3675296284        3.1895422301       15.6822597689
 Cs        16.2053566655       15.9651292562        2.3089971246
 Cs        14.8696767282       15.7923423681       15.5391669295
 Pb         0.1287912505        0.3571748121        6.3014358889
 Pb        -0.0526387366        0.1444454452       18.7768749800
 Pb        -0.2969960442       12.9787900368        6.3335593758
 Pb        -0.1012533965       12.5919369015       19.2317608132
 Pb        12.5962354273        0.7707241372        6.4500949378
 Pb        12.4539372071        0.2782694004       19.2506908029
 Pb        12.5860352972       12.6378271621        6.0018415966
 Pb        11.8634785212       13.1340973865       19.4587901353
 Pb         6.5070491990        6.5296968876        6.5133446607
 Pb         6.2700874528        6.3156147996       19.0624113463
 Pb         5.5629454868       19.3048497823        6.4313588128
 Pb         5.8228692557       19.2542504671       19.1946865652
 Pb        18.6599487608        6.8935960337        6.2804441994
 Pb        18.6678646231        6.2585920700       19.1879579431
 Pb        18.7589522415       19.5099305191        6.1962323630
 Pb        18.7433237652       19.3933345086       18.9756926175
 Pb         0.1075792116        6.5489189249        6.6397198614
 Pb        -0.4769416699        6.0789091020       18.9367220896
 Pb        -0.7359272256       19.2183085802        6.2941622739
 Pb        -0.6087453522       18.8039999666       18.6989427545
 Pb        12.4525569725        6.5337049307        6.7093187635
 Pb        12.2193019100        6.6340737826       19.0747602777
 Pb        12.1919666444       19.0383975920        6.0914945090
 Pb        12.3039695888       19.4351320239       19.0017637208
 Pb         6.5891600039        0.4601177188        6.0423161957
 Pb         6.6749496824        0.4629419807       19.0664071589
 Pb         6.0512878669       12.9514312166        6.4714627731
 Pb         5.9614524073       12.5675386614       19.6146323524
 Pb        19.4994000181        0.4782355444        6.8096242060
 Pb        18.6452388293        0.0977778967       19.1388203130
 Pb        18.7591293812       13.4587999967        6.5616900165
 Pb        18.5850389653       12.5566601635       18.9896080051
 Pb         0.1402603349        0.1432499674       -0.2496037344
 Pb         0.2500282209        0.0879547761       12.4867078353
 Pb        -0.6130022515       13.0554058485        0.3682508338
 Pb        -0.1080814365       12.7769889273       12.8249497656
 Pb        12.6845159221       -0.1236466456        0.4077159192
 Pb        13.0307014122       -0.0965563052       12.3826600926
 Pb        11.7962358428       12.9428107794        0.1276521830
 Pb        12.3963170905       13.0819323176       12.5150350457
 Pb         5.7914328545        6.3938040644       -0.0524693641
 Pb         6.3946859170        6.1801763177       12.8304399006
 Pb         5.5732725265       19.1906270494        0.1586753993
 Pb         6.1922813647       19.2523880109       12.7162560119
 Pb        18.4021439761        6.7159197043        0.1770095462
 Pb        19.1356430818        6.4122319508       12.7379763873
 Pb        18.3100229604       19.2990766457       -0.4185688354
 Pb        18.5495006137       18.9181509939       12.4729887991
 Pb        -0.8313035657        6.6246156095        0.6283932959
 Pb        -0.1104424804        6.1936982452       12.7028029025
 Pb        -0.6980705983       19.0312754438       -0.4664195972
 Pb         0.1086831999       18.5578045211       12.3106694231
 Pb        12.3517607057        6.5472737609        0.0366307289
 Pb        12.8945367976        6.6083155494       12.6247999646
 Pb        11.8304521857       18.9434261412       -0.1434500381
 Pb        12.3999886204       18.8184458723       12.2098072710
 Pb         6.5685022614       -0.1505944150        0.0483381788
 Pb         6.6658798042       -0.2633396370       12.7424979943
 Pb         5.5810259937       12.8121904950       -0.0476235931
 Pb         6.2379240788       12.8549068683       12.6475452827
 Pb        18.9700412236        0.1643309838        0.0900802134
 Pb        19.5386563238        0.0755565109       13.5254692357
 Pb        18.7894704714       13.0429988780       -0.4956125297
 Pb        18.9549775509       12.9347587796       13.0587629060
  I        11.3358599047        3.7427547287        5.4603421439
  I        12.3124588005        3.2354185522       19.4829112412
  I        12.0431922151       16.0786873919        5.1457336262
  I        12.5025525699       16.1905972831       18.5819190704
  I        24.5822386306        3.9154536632        5.9566357665
  I        26.0204144359        3.8117707484       18.9968150956
  I        25.1629533916       16.5797893626        5.7075488850
  I        24.8150988555       16.2504298713       18.8200719443
  I         5.4779153811        9.9366831912        6.2051262134
  I         6.5886313455        9.6519597002       19.0634612407
  I         5.1194597063       22.5921177352        6.1200557396
  I         5.1663381750       22.2363305194       18.4364666304
  I        18.6576199893       10.0236443933        6.0820104541
  I        18.3028880081        9.4513999904       18.1857512377
  I        18.1520708462       22.5285856549        6.3460952013
  I        18.5468193565       22.5318373262       17.4898152543
  I         1.1177861768        9.4561085166        6.6679531137
  I        -0.3945773219        9.4228588235       19.0632718234
  I        -0.0593695214       22.4895834001        6.3842539467
  I        -1.7453001175       22.2773197719       18.7862951084
  I        13.2833323756        9.5494438070        6.5470091613
  I        12.1337587042        9.7371696065       19.5945197225
  I        12.2287151395       22.6538154817        6.5729208722
  I        11.6738156018       22.2633347995       20.0719060148
  I         7.0456537069        3.4764874816        6.7389651116
  I         6.8588884656        3.3485728012       19.8409438866
  I         5.7585571142       16.1955393913        6.1288288233
  I         6.0400539495       15.8996080673       20.1518748704
  I        20.3191975988        3.5523029036        6.2993174105
  I        18.6817629639        3.2637376465       19.9676063331
  I        19.2043004558       16.3116499461        6.7912923204
  I        18.9963686481       16.3980535584       19.5397222861
  I         3.0787121297        5.8180981786        6.1216831366
  I         2.8772120000        6.6410330670       18.9343477277
  I         2.4709829863       18.8042269143        5.9328932240
  I         2.5005159044       19.3432263092       19.2152484282
  I        15.5253339817        5.6308065626        6.3709893323
  I        15.3511202314        6.5369898462       18.3514976288
  I        15.1537238650       18.7038133360        5.8935176049
  I        15.5783356616       19.7772351600       18.0923453232
  I         9.3235608769       12.5274129868        6.9761453545
  I         9.0298068707       13.1768296194       20.2012481522
  I         8.5555108608       24.7986340412        6.4231684386
  I         8.5212224078       24.6255950054       19.3645927277
  I        21.9868615664       12.9112506814        6.6719819129
  I        22.1239356853       12.2858189617       18.4493167705
  I        21.7958774506       24.9126439277        6.6736824417
  I        21.6530381284       26.2664168735       18.8910089498
  I         9.3917440041        7.7822608060        6.2349232235
  I         9.2952506153        6.3513004863       20.3194907784
  I         8.7448704206       19.6557557703        5.9642744077
  I         8.8892766124       18.7761877634       19.2118230967
  I        22.1958372559        7.7769176117        7.0908025529
  I        21.8961458362        7.1218045722       19.8927269735
  I        21.7537804373       19.8522997354        7.5839771950
  I        21.8646029161       19.5892061308       19.2564991763
  I         3.5403900513        0.3491131743        5.9946898418
  I         3.6320315177        0.1439681766       18.9948750983
  I         2.9262090152       13.0454798451        6.9597230770
  I         3.1505315045       12.4049852524       18.3716248762
  I        16.2095660052        0.6903465686        6.9401482123
  I        15.9788384370       -0.3844667096       20.0529197899
  I        15.5769658340       13.5018503511        6.0166597764
  I        15.6540000165       12.9694796701       19.2815280159
  I        -0.5374107124        9.8603362086       -0.0275612770
  I         0.3443329181        9.5824640103       12.4756037034
  I         0.0292893901       22.2198433288       -0.3115011352
  I         0.0142823366       22.1746083757       12.1442430626
  I        13.0241658795       10.1303335615       -0.1933388599
  I        12.5625685304        9.6416742317       12.5903073623
  I        12.1947821284       22.2761046711        0.0020686286
  I        12.7684992593       22.1001456094       11.8164706112
  I         6.4472334297        3.1339760110       -0.0523652493
  I         6.8459258267        2.9154827952       12.4929804243
  I         6.2227640458       16.0224114693       -0.0456599477
  I         7.1619526303       15.7712365662       12.3001889497
  I        18.6801539028        3.5156764829        0.0221375789
  I        19.5965343326        3.4482955665       12.3595698946
  I        19.3137105103       16.3682610282       -1.0202009495
  I        19.6095669451       15.7995335734       12.0981695667
  I        12.5143037405        2.8834524521       12.9419996024
  I        12.5495703655        3.4789971244       25.7080556395
  I        11.7438214168       15.7154139432       13.4911817986
  I        12.1711802575       15.8563467364       26.2635188442
  I        25.4032459678        3.7582175185       13.7218613537
  I        24.7284749091        3.4416781135       25.2891112071
  I        25.0214027854       16.3199768986       13.4159157015
  I        24.0033092037       16.4840308245       26.2738638289
  I         6.1092171972        9.2771065258       13.2221333421
  I         5.5168092076        9.3532165745       25.7474173185
  I         4.7624179299       22.1031262440       13.1126420975
  I         5.0504755190       21.8967949199       26.0692309518
  I        18.5185403349        9.7476686680       12.9755962985
  I        18.2722700279        9.5718675036       25.8312818183
  I        18.7606048630       22.5277396686       13.2246438135
  I        17.6059916470       22.1195462338       25.7615153148
  I         9.6027613513        6.2750489046       11.8251701317
  I         9.4618833173        6.6371468837       24.9916385316
  I         9.1726043513       19.7629069367       12.0483050404
  I         9.0878080261       19.4140350342       25.2622335169
  I        22.3165118649        7.2388622971       12.4777793663
  I        22.0580986178        7.1787041034       25.3773355773
  I        22.0539663217       19.0751040528       11.7092586180
  I        21.9973477509       20.1633786519       25.3304108295
  I         3.4200694755        0.6019240552       12.1932197514
  I         3.3547704210        0.5855563745       25.2977378854
  I         3.1686904503       12.7179732021       13.0205429641
  I         2.8220356356       12.8292998330       26.3894227267
  I        16.2602435589        0.0428682825       13.0791757307
  I        15.7954516550        0.3693911148       25.7198887133
  I        15.8683387243       13.0283422482       13.1968144608
  I        15.8919188980       13.0268170987       24.8079279513
  I         2.6889111962        6.1634188534        0.0456678408
  I         3.4174522057        6.1962943216       13.7870009311
  I         2.2603954287       18.8021408912        1.2337251896
  I         3.1603289145       18.0636552500       12.8732668067
  I        15.5041015772        6.6310114308        1.1684566728
  I        16.0108075532        6.0716511723       13.4425735065
  I        15.4086351234       18.8114238221       -0.2932490928
  I        15.5170805095       18.6106082883       13.2729816882
  I         8.8879295273       12.8708084803       -0.0248989971
  I         9.5762905640       12.0567705512       12.2952947671
  I         8.5991788512       25.2039369595        0.4346559238
  I         9.1113926272       24.2406757015       12.9523194803
  I        21.9810599521       12.8854496852        0.3794062648
  I        22.2504819631       13.0624259028       12.3400450070
  I        21.1847603242       24.9678557800       -0.0114513215
  I        21.5234772383       25.2394439471       12.9581621117
  I        13.2220461532       12.7301635217        9.4406866456
  I        12.1402973740       13.9857501473       22.6448161047
  I        12.3751993366       26.3373218016        9.4265947474
  I        11.5588779309       25.2499384471       22.6186581680
  I        25.1834502211       13.7958840750        9.6419915309
  I        25.6847894755       13.9548672779       22.7545792639
  I        24.6580205003       26.5814543007        9.5359591086
  I        24.7883147637       25.8652278863       22.1724549510
  I         5.6421453024        6.7132529136        9.9085992444
  I         5.6502618010        6.6868462722       22.5281441578
  I         5.7125953235       18.9832202283        9.6372998384
  I         6.2268488828       19.3549873198       22.4819096327
  I        18.7313277572        6.8428345899        9.4447866329
  I        18.6602054736        6.8342267283       22.5181925633
  I        17.8395065884       19.4592830166        9.5258010602
  I        19.0696272050       20.5549041433       22.0265666675
  I         0.2273755698        0.5168617346        3.1712418204
  I         0.2415971528       -0.2430180949       15.5814475540
  I        -0.6242538568       11.7177452297        3.3916538774
  I         0.0520752596       12.5325714161       15.9897250112
  I        13.1966509883       -0.2373406075        3.5057154649
  I        12.8580101457       -0.1004448621       16.2661680163
  I        11.7076887211       12.1806470770        3.3266113946
  I        12.0146360907       12.5732471712       15.8133575858
  I         6.8222064895        6.3722787261        3.4048439033
  I         6.7591219028        5.5115610068       16.0581095552
  I         6.2376351196       19.3647341408        3.0050207935
  I         6.4937326957       18.4416664230       15.7447094493
  I        19.3970535517        6.3027517181        3.1764437873
  I        19.2987944202        6.1430267663       16.0046561442
  I        18.8703775937       19.1146836989        3.0139033374
  I        19.3883985987       18.8486591656       15.5980154199
  I        11.7217165868        6.7855765787        3.0880168656
  I        11.4733121212        6.3558718213       15.7707566977
  I        12.4321964190       19.7975659219        3.0927048395
  I        11.5881943572       19.6303837112       15.6728699503
  I        24.3751711738        7.6947076003        3.7966057641
  I        24.7065169071        7.5202848492       15.9615856617
  I        24.1352467155       19.9717775759        3.6932196474
  I        24.9233322797       19.8350454566       15.8342260107
  I         6.4625912596       12.7589278430        3.2552233182
  I         7.0159476599       13.1112776097       16.2841440626
  I         5.2816300631       26.1174310837        2.9236421514
  I         5.4475409858       25.5005743926       15.7705224776
  I        18.8405073616       13.3410875471        3.1119259519
  I        18.8621715685       13.4300070100       16.0686967333
  I        18.3797244719       25.3415284579        3.1685564682
  I        18.1928621600       27.0702222787       16.2330808874
  I         0.2729580023        5.6047091521        9.8271399532
  I        -0.5395190212        6.2520767430       22.0289398948
  I         0.4533260932       18.0663087932        9.4934129291
  I        -0.3530569974       17.9031224490       22.0950504250
  I        13.4540088473        6.1600384514        9.5086318947
  I        13.2736199609        6.5037539235       22.1084418690
  I        11.7952857666       17.9340833356        9.1451537968
  I        11.6780835488       19.1332165470       22.2004025932
  I         6.9100000596       -0.1432590672        9.8767300566
  I         6.5680674830       -0.7088666537       22.2259683211
  I         5.8734161540       12.4890491312        9.6162390610
  I         5.5664667118       11.3641400935       22.4469108606
  I        19.6148767379        0.2307370741        9.8983192846
  I        19.4765439527       -0.4524061052       22.5036894849
  I        18.2358563924       12.7089066195        9.5424668862
  I        19.7553658660       12.7989225366       21.9879175484
